@<TRIPOS>MOLECULE
COT
   28    32     1     0     0
SMALL
bcc


@<TRIPOS>ATOM
      1 S1          -3.0370    -0.7450    -1.2570 ss         1 COT       0.022200
      2 S2          -2.2000    -1.7600     1.8060 ss         1 COT       0.022200
      3 S3           3.4190    -0.2820    -0.5260 ss         1 COT       0.022200
      4 C4          -1.4230    -0.6350    -0.5870 cc         1 COT      -0.019100
      5 C5          -1.2370    -0.6940     0.8370 cc         1 COT      -0.019100
      6 C6          -1.7130    -1.0320     3.3460 cc         1 COT      -0.170100
      7 C7          -0.7490    -0.0850     3.0520 cd         1 COT      -0.141000
      8 C8          -0.4880     0.1560     1.6950 cd         1 COT      -0.021000
      9 C9           0.2990     1.2700     1.2480 cd         1 COT      -0.021000
     10 C10          0.1060     2.5650     1.8120 cd         1 COT      -0.141000
     11 C11          0.9910     3.5330     1.2880 cc         1 COT      -0.170100
     12 C12          1.2050     1.2550     0.3130 cc         1 COT      -0.019100
     13 C13          1.6630     0.0820    -0.4480 cc         1 COT      -0.019100
     14 C14          3.1030    -1.6300    -1.6530 cc         1 COT      -0.170100
     15 C15          1.7950    -1.6750    -1.9760 cd         1 COT      -0.141000
     16 C16          0.9290    -0.6730    -1.3290 cd         1 COT      -0.021000
     17 C17         -0.4720    -0.6220    -1.6310 cd         1 COT      -0.021000
     18 C18         -1.0930    -0.8740    -2.9000 cd         1 COT      -0.141000
     19 C19         -2.4810    -0.9190    -2.9040 cc         1 COT      -0.170100
     20 H20         -2.0100    -1.4780     4.1310 h4         1 COT       0.172000
     21 H21         -0.4430     0.6900     3.8800 ha         1 COT       0.157000
     22 H22         -0.5660     2.8810     2.5780 ha         1 COT       0.157000
     23 H23          0.9680     4.6330     1.3890 h4         1 COT       0.172000
     24 H24          3.9580    -2.4060    -1.7980 h4         1 COT       0.172000
     25 H25          1.3800    -2.3730    -2.6710 ha         1 COT       0.157000
     26 H26         -0.6300    -0.9320    -3.9720 ha         1 COT       0.157000
     27 H27         -3.2480    -1.0620    -3.7530 h4         1 COT       0.172000
     28 S28          1.9740     2.8130     0.0320 ss         1 COT       0.022200
@<TRIPOS>BOND
     1     1     4 1   
     2     1    19 1   
     3     2     5 1   
     4     2     6 1   
     5     3    13 1   
     6     3    14 1   
     7     4     5 1   
     8     4    17 2   
     9     5     8 2   
    10     6     7 2   
    11     6    20 1   
    12     7     8 1   
    13     7    21 1   
    14     8     9 1   
    15     9    10 1   
    16     9    12 2   
    17    10    11 2   
    18    10    22 1   
    19    11    23 1   
    20    11    28 1   
    21    12    13 1   
    22    12    28 1   
    23    13    16 2   
    24    14    15 2   
    25    14    24 1   
    26    15    16 1   
    27    15    25 1   
    28    16    17 1   
    29    17    18 1   
    30    18    19 2   
    31    18    26 1   
    32    19    27 1   
@<TRIPOS>SUBSTRUCTURE
     1 COT         1 TEMP              0 ****  ****    0 ROOT
